Circuit: * C:\Users\jbanks2\Documents\Projects\SMS2OBD\V1\Simulaton\ACTIVE ANTENNA.asc


Date: Fri Aug 21 13:47:33 2015
Total elapsed time: 0.015 seconds.

tnom = 27
temp = 27
method = trap
totiter = 0
traniter = 0
tranpoints = 0
accept = 0
rejected = 0
matrix size = 4
fillins = 0
solver = Normal

