Circuit: * C:\Users\jbanks2\Documents\Projects\rvi_v2x_board\Hardware\Simulaton\Charge Pump.asc

Warning: Multiple definitions of model "rfn30ts6d" Type: Diode
Direct Newton iteration for .op point succeeded.
.step freq=20000
.step freq=100000

Date: Mon Oct 12 12:53:08 2015
Total elapsed time: 2.231 seconds.

tnom = 27
temp = 27
method = modified trap
totiter = 536228
traniter = 536216
tranpoints = 206195
accept = 156669
rejected = 49526
matrix size = 15
fillins = 0
solver = Normal
Matrix Compiler1:      36 opcodes  0.1/[0.0]/0.1
Matrix Compiler2: off  [0.1]/0.1/0.2


